  Page 1                                    Tue Jun 04 15:24:52 2024

  ******************************************************************
  *                           E P A N E T                          *
  *                   Hydraulic and Water Quality                  *
  *                   Analysis for Pipe Networks                   *
  *                         Version 2.2                            *
  ******************************************************************
  
  Analysis begun Tue Jun 04 15:24:52 2024

  Error 307: cannot read hydraulics file
  Error 307: cannot read hydraulics file