  Page 1                                    Fri May 31 10:11:36 2024

  ******************************************************************
  *                           E P A N E T                          *
  *                   Hydraulic and Water Quality                  *
  *                   Analysis for Pipe Networks                   *
  *                         Version 2.2                            *
  ******************************************************************
  
  Analysis begun Fri May 31 10:11:36 2024

  Error 307: cannot read hydraulics file
  Error 307: cannot read hydraulics file