  Page 1                                    Thu May 09 17:28:51 2024

  ******************************************************************
  *                           E P A N E T                          *
  *                   Hydraulic and Water Quality                  *
  *                   Analysis for Pipe Networks                   *
  *                         Version 2.2                            *
  ******************************************************************
  
  Analysis begun Thu May 09 17:28:51 2024

  Analysis ended Thu May 09 17:28:51 2024
